6
reference_type=interaction_energy reference_unit=kcalmol reference_value=-3.457 charge=0 charge_a=0 charge_b=0 selection_a=1-3 selection_b=4-6
  O   -0.702196054  -0.056060256   0.009942262
  H   -1.022193224   0.846775782  -0.011488714
  H    0.257521062   0.042121496   0.005218999
  O    2.771820711   0.022393968  -0.000669948
  H    3.148442326  -0.415986098   0.765454434
  H    3.144085028  -0.453819007  -0.746072450
