32838
  -OEChem-11241915103D

 10  9  0     0  0  0  0  0  0999 V2000
    1.1850    0.7210    0.0000 N   0  3  0  0  0  0  0  0  0  0  0  0
   -1.2170    0.6657    0.0000 N   0  0  0  0  0  0  0  0  0  0  0  0
    0.0319   -1.3868    0.0000 N   0  0  0  0  0  0  0  0  0  0  0  0
    0.0000    0.0001    0.0001 C   0  0  0  0  0  0  0  0  0  0  0  0
    2.0873    0.2515   -0.0001 H   0  0  0  0  0  0  0  0  0  0  0  0
    1.1828    1.7382   -0.0001 H   0  0  0  0  0  0  0  0  0  0  0  0
   -1.2616    1.6819    0.0000 H   0  0  0  0  0  0  0  0  0  0  0  0
   -2.0967    0.1551    0.0000 H   0  0  0  0  0  0  0  0  0  0  0  0
   -0.8258   -1.9334    0.0000 H   0  0  0  0  0  0  0  0  0  0  0  0
    0.9139   -1.8934   -0.0001 H   0  0  0  0  0  0  0  0  0  0  0  0
  1  4  2  0  0  0  0
  1  5  1  0  0  0  0
  1  6  1  0  0  0  0
  2  4  1  0  0  0  0
  2  7  1  0  0  0  0
  2  8  1  0  0  0  0
  3  4  1  0  0  0  0
  3  9  1  0  0  0  0
  3 10  1  0  0  0  0
M  CHG  1   1   1
M  END
> <PUBCHEM_COMPOUND_CID>
32838

> <PUBCHEM_CONFORMER_RMSD>
0.4

> <PUBCHEM_CONFORMER_DIVERSEORDER>
1

> <PUBCHEM_MMFF94_PARTIAL_CHARGES>
10
1 -0.97
10 0.45
2 -0.97
3 -0.97
4 1.2
5 0.45
6 0.45
7 0.45
8 0.45
9 0.45

> <PUBCHEM_EFFECTIVE_ROTOR_COUNT>
0

> <PUBCHEM_PHARMACOPHORE_FEATURES>
4
1 1 donor
1 2 donor
1 3 donor
4 1 2 3 4 cation

> <PUBCHEM_HEAVY_ATOM_COUNT>
4

> <PUBCHEM_ATOM_DEF_STEREO_COUNT>
0

> <PUBCHEM_ATOM_UDEF_STEREO_COUNT>
0

> <PUBCHEM_BOND_DEF_STEREO_COUNT>
0

> <PUBCHEM_BOND_UDEF_STEREO_COUNT>
0

> <PUBCHEM_ISOTOPIC_ATOM_COUNT>
0

> <PUBCHEM_COMPONENT_COUNT>
1

> <PUBCHEM_CACTVS_TAUTO_COUNT>
2

> <PUBCHEM_CONFORMER_ID>
0000804600000001

> <PUBCHEM_MMFF94_ENERGY>
0.9446

> <PUBCHEM_FEATURE_SELFOVERLAP>
20.392

> <PUBCHEM_SHAPE_FINGERPRINT>
139733 1 9218658976136268675
20096714 4 18411700971727542496
21015797 1 8934994893128104431
5943 1 13538295881221052172

> <PUBCHEM_SHAPE_MULTIPOLES>
67.38
1.21
1.21
0.54
0.16
0.44
0
-0.44
0
-0.16
0
0
0
0

> <PUBCHEM_SHAPE_SELFOVERLAP>
113.157

> <PUBCHEM_SHAPE_VOLUME>
42.8

> <PUBCHEM_COORDINATE_TYPE>
2
5
10

$$$$
